CM Half-wave dipole at 40m (7.1 MHz) at 10 m AGL, good ground (reference height)
CM Horizontal wire at 10 m AGL, 20.07 m total (0.95 VF)
CM GN 2 good soil: EPSE=20.0, SIG=0.03 S/m
CE
GW 1 51 -10.035 0 10 10.035 0 10 0.001
GE 0
GN 2 0 0 0 20.0 0.03
EX 0 1 26 0 1.0 0.0
FR 0 1 0 0 7.1 0.0
EN
