CM Inverted-V, 40m (7.1 MHz), 90-deg apex, apex 12 m, free space
CM rusty-wire leg 9.74 m (total 19.49 m); ends at (+-6.892, 0, 5.108)
CE
GW 1 26 -6.892 0 5.108 0 0 12 0.001
GW 2 26 0 0 12 6.892 0 5.108 0.001
GE 0
FR 0 1 0 0 7.1 0
EX 0 1 26 0 1.0 0.0
RP 0 1 1 1000 0 0 0 0
EN
